*Heading
** Job name: Door-01 Model name: Forced-temperature
** Generated by: Abaqus/CAE 6.9-2
*Preprint, echo=NO, model=NO, history=NO, contact=NO
**
** PARTS
**
*Part, name=Door
*Node
      1,           0.,  0.449999988,           2.
      2,           0.,          0.5,           2.
      3,           0.,  0.449999988,   1.89999998
      4,           0.,          0.5,   1.89999998
      5,           0.,  0.449999988,   1.79999995
      6,           0.,          0.5,   1.79999995
      7,           0.,  0.449999988,   1.70000005
      8,           0.,          0.5,   1.70000005
      9,           0.,  0.449999988,   1.60000002
     10,           0.,          0.5,   1.60000002
     11,           0.,  0.449999988,          1.5
     12,           0.,          0.5,          1.5
     13,           0.,  0.449999988,   1.39999998
     14,           0.,          0.5,   1.39999998
     15,           0.,  0.449999988,   1.29999995
     16,           0.,          0.5,   1.29999995
     17,           0.,  0.449999988,   1.20000005
     18,           0.,          0.5,   1.20000005
     19,           0.,  0.449999988,   1.10000002
     20,           0.,          0.5,   1.10000002
** ... 442 like lines cut
*Element, type=DCC3D8
  1,  43,  44,  46,  45,   1,   2,   4,   3
  2,  45,  46,  48,  47,   3,   4,   6,   5
  3,  47,  48,  50,  49,   5,   6,   8,   7
  4,  49,  50,  52,  51,   7,   8,  10,   9
  5,  51,  52,  54,  53,   9,  10,  12,  11
  6,  53,  54,  56,  55,  11,  12,  14,  13
  7,  55,  56,  58,  57,  13,  14,  16,  15
  8,  57,  58,  60,  59,  15,  16,  18,  17
  9,  59,  60,  62,  61,  17,  18,  20,  19
 10,  61,  62,  64,  63,  19,  20,  22,  21
 11,  63,  64,  66,  65,  21,  22,  24,  23
 12,  65,  66,  68,  67,  23,  24,  26,  25
 13,  67,  68,  70,  69,  25,  26,  28,  27
 14,  69,  70,  72,  71,  27,  28,  30,  29
 15,  71,  72,  74,  73,  29,  30,  32,  31
 16,  73,  74,  76,  75,  31,  32,  34,  33
 17,  75,  76,  78,  77,  33,  34,  36,  35
 18,  77,  78,  80,  79,  35,  36,  38,  37
 19,  79,  80,  82,  81,  37,  38,  40,  39
 20,  81,  82,  84,  83,  39,  40,  42,  41
** ... 180 like lines cut
*Nset, nset=_PickedSet8, internal, generate
1, 462, 1
*Elset, elset=_PickedSet8, internal, generate
1, 200, 1
*Nset, nset=Set-Temperature, generate
   2,  462,    2
*Nset, nset=Set-Boundary, generate
1, 462, 1
*Solid Section, elset=_PickedSet8, material=STEEL
,
*End Part
**
** ASSEMBLY
**
*Assembly, name=Assembly
**
*Instance, name=Door-1, part=Door
*End Instance
**
*End Assembly
**
** MATERIALS
**
**   Define material properties
*Material, name=STEEL
*Conductivity
0.016,
*Density
7.85e-06,
*Elastic
207000., 0.3
*Expansion
1.38e-05,
*Specific Heat
500.,
**
** PREDEFINED FIELDS
**
** Name: Predefined Field-1   Type: Temperature
*Initial Conditions, type=TEMPERATURE
Door-1.Set-Boundary, 20.
** ----------------------------------------------------------------
**
** STEP: Step-1
**
*Step, name=Step-1, inc=100000
*Heat Transfer, end=PERIOD, deltmx=5.
0.01, 100., 1e-05, 50.,
**
** OUTPUT REQUESTS
**
*Restart, write, frequency=0
**
** FIELD OUTPUT: F-Output-1
**
*Output, field
*Node Output
NT,
*Output, history, frequency=0
*End Step
