*Heading
** Job name: TC3_m1A Model name: TC3_m1A
** Generated by: Abaqus/CAE 6.11-1
*Preprint, echo=NO, model=NO, history=NO, contact=NO
**
** PARTS
**
*Part, name=Wall_with_hole
*Node
1,  0.400000006,  0.600000024,           0.
2,           0.,  0.200000003,           0.
3,           0.,           1.,           0.
4, -0.400000006,  0.600000024,           0.
5,         0.75,           0.,           0.
6,        -0.75,           0.,           0.
7,        -0.75,   1.20000005,           0.
8,         0.75,   1.20000005,           0.
9,  0.363636374,  0.563636363,           0.
10,  0.327272713,  0.527272701,           0.
11,  0.290909082,    0.4909091,           0.
12,   0.25454545,  0.454545468,           0.
13,  0.218181819,  0.418181807,           0.
14,  0.181818187,  0.381818175,           0.
15,  0.145454541,  0.345454544,           0.
16,  0.109090909,  0.309090912,           0.
17, 0.0727272704,  0.272727281,           0.
18, 0.0363636352,  0.236363634,           0.
19, 0.0363636352,  0.963636339,           0.
20, 0.0727272704,  0.927272737,           0.
** ... 2290 like lines cut
*Element, type=DC3D8
1,  194,   56,   55,  192,  964,  826,  825,  962
2,  265,  135,  134,  263, 1035,  905,  904, 1033
3,  311,  283,  484,  421, 1081, 1053, 1254, 1191
4,  238,  240,  109,  108, 1008, 1010,  879,  878
5,  230,  231,  377,  409, 1000, 1001, 1147, 1179
6,  307,  284,  485,  420, 1077, 1054, 1255, 1190
7,  194,  192,  312,  292,  964,  962, 1082, 1062
8,  220,   83,   82,  218,  990,  853,  852,  988
9,  159,  140,  139,  158,  929,  910,  909,  928
10,  160,  141,  140,  159,  930,  911,  910,  929
11,  138,  157,  158,  139,  908,  927,  928,  909
12,  273,  146,  145,  287, 1043,  916,  915, 1057
13,  313,  337,  162,  270, 1083, 1107,  932, 1040
14,   10,  163,  161,    9,  780,  933,  931,  779
15,  279,  149,  148,  277, 1049,  919,  918, 1047
16,  399,  384,  163,  272, 1169, 1154,  933, 1042
17,  165,  166,  116,  115,  935,  936,  886,  885
18,  249,    3,  375,  443, 1019,  773, 1145, 1213
19,   20,  168,  167,   19,  790,  938,  937,  789
20,  168,   20,   21,  169,  938,  790,  791,  939
** ... 1368 like lines cut
*Nset, nset=_PickedSet2, internal, generate
1,  2310,     1
*Elset, elset=_PickedSet2, internal, generate
1,  1388,     1
*Nset, nset=Set-Temperature
1541, 1592, 1643, 1694, 1745, 1796, 1847, 1898, 1949, 2000, 2051, 2102, 2153, 2204, 2255,
1542, 1593, 1644, 1695, 1746, 1797, 1848, 1899, 1950, 2001, 2052, 2103, 2154, 2205, 2256,
1543, 1594, 1645, 1696, 1747, 1798, 1849, 1900, 1951, 2002, 2053, 2104, 2155, 2206, 2257,
1544, 1595, 1646, 1697, 1748, 1799, 1850, 1901, 1952, 2003, 2054, 2105, 2156, 2207, 2258,
1545, 1596, 1647, 1698, 1749, 1800, 1851, 1902, 1953, 2004, 2055, 2106, 2157, 2208, 2259,
1546, 1597, 1648, 1699, 1750, 1801, 1852, 1903, 1954, 2005, 2056, 2107, 2158, 2209, 2260,
1547, 1598, 1649, 1700, 1751, 1802, 1853, 1904, 1955, 2006, 2057, 2108, 2159, 2210, 2261,
1548, 1599, 1650, 1701, 1752, 1803, 1854, 1905, 1956, 2007, 2058, 2109, 2160, 2211, 2262,
1549, 1600, 1651, 1702, 1753, 1804, 1855, 1906, 1957, 2008, 2059, 2110, 2161, 2212, 2263,
1550, 1601, 1652, 1703, 1754, 1805, 1856, 1907, 1958, 2009, 2060, 2111, 2162, 2213, 2264,
1551, 1602, 1653, 1704, 1755, 1806, 1857, 1908, 1959, 2010, 2061, 2112, 2163, 2214, 2265,
1552, 1603, 1654, 1705, 1756, 1807, 1858, 1909, 1960, 2011, 2062, 2113, 2164, 2215, 2266,
1553, 1604, 1655, 1706, 1757, 1808, 1859, 1910, 1961, 2012, 2063, 2114, 2165, 2216, 2267,
1554, 1605, 1656, 1707, 1758, 1809, 1860, 1911, 1962, 2013, 2064, 2115, 2166, 2217, 2268,
1555, 1606, 1657, 1708, 1759, 1810, 1861, 1912, 1963, 2014, 2065, 2116, 2167, 2218, 2269,
1556, 1607, 1658, 1709, 1760, 1811, 1862, 1913, 1964, 2015, 2066, 2117, 2168, 2219, 2270,
1557, 1608, 1659, 1710, 1761, 1812, 1863, 1914, 1965, 2016, 2067, 2118, 2169, 2220, 2271,
1558, 1609, 1660, 1711, 1762, 1813, 1864, 1915, 1966, 2017, 2068, 2119, 2170, 2221, 2272,
1559, 1610, 1661, 1712, 1763, 1814, 1865, 1916, 1967, 2018, 2069, 2120, 2171, 2222, 2273,
1560, 1611, 1662, 1713, 1764, 1815, 1866, 1917, 1968, 2019, 2070, 2121, 2172, 2223, 2274,
** ... 32 like lines cut
*Elset, elset=Set-Temperature, generate
695,  1388,     1
** Section: concrete_wall
*Solid Section, elset=_PickedSet2, material=C30
,
*End Part
**
**
** ASSEMBLY
**
*Assembly, name=Assembly
**
*Instance, name=Wall_with_hole-1, part=Wall_with_hole
*End Instance
**
*Nset, nset=_PickedSet5, internal, instance=Wall_with_hole-1, generate
1,  2310,     1
*Elset, elset=_PickedSet5, internal, instance=Wall_with_hole-1, generate
1,  1388,     1
*End Assembly
**
** MATERIALS
**
*Material, name=C30
*Conductivity
1.33303,  20.
1.28045,  60.
1.2297, 100.
1.18077, 140.
1.13367, 180.
1.08839, 220.
1.04493, 260.
1.0033, 300.
0.963492, 340.
0.925508, 380.
0.889348, 420.
0.855012, 460.
0.8225, 500.
0.791812, 540.
0.762948, 580.
0.735908, 620.
0.710692, 660.
0.6873, 700.
0.665732, 740.
0.645988, 780.
** ... 11 like lines cut
*Density
2300.,  20.
2300., 115.
2254., 200.
2185., 400.
2024.,1200.
*Expansion
0.,  20.
3.0224e-06,  40.
4.0504e-06,  60.
4.5896e-06,  80.
4.94e-06, 100.
5.2016e-06, 120.
5.41726e-06, 140.
5.6084e-06, 160.
5.78693e-06, 180.
5.96e-06, 200.
6.13215e-06, 220.
6.3064e-06, 240.
6.48486e-06, 260.
6.66903e-06, 280.
6.86e-06, 300.
7.0586e-06, 320.
7.26546e-06, 340.
7.48107e-06, 360.
7.70581e-06, 380.
7.94e-06, 400.
** ... 23 like lines cut
*Specific Heat
2000.,  20.
400.,  40.
75., 100.
3000., 130.
6000., 131.
6000., 140.
4500., 144.
1000., 150.
1000., 200.
1100., 400.
1100.,1200.
**
** PREDEFINED FIELDS
**
** Name: Initial_temperature   Type: Temperature
*Initial Conditions, type=TEMPERATURE
_PickedSet5, 20.
** ----------------------------------------------------------------
**
** STEP: heat_transf
**
*Step, name=heat_transf
*Heat Transfer, end=PERIOD, deltmx=100.
1., 600., 1e-05, 10.,
**
** OUTPUT REQUESTS
**
*Restart, write, frequency=0
**
** FIELD OUTPUT: F-Output-1
**
*Output, field, variable=PRESELECT
*Output, history, frequency=0
*End Step
