*Heading
** Job name: TC1_m1B Model name: TC1_m1B
** Generated by: Abaqus/CAE 6.11-1
*Preprint, echo=NO, model=NO, history=NO, contact=NO
**
** PARTS
**
*Part, name=insulator
*Node
1,           0.,           0., 0.0500000007
2,           0., -0.0500000007, 0.0500000007
3,           0., -0.100000001, 0.0500000007
4,           0., -0.150000006, 0.0500000007
5,           0., -0.200000003, 0.0500000007
6,           0.,        -0.25, 0.0500000007
7,           0., -0.300000012, 0.0500000007
8,           0.,           0.,           0.
9,           0., -0.0500000007,           0.
10,           0., -0.100000001,           0.
11,           0., -0.150000006,           0.
12,           0., -0.200000003,           0.
13,           0.,        -0.25,           0.
14,           0., -0.300000012,           0.
15, -0.0500000007,           0., 0.0500000007
16, -0.0500000007, -0.0500000007, 0.0500000007
17, -0.0500000007, -0.100000001, 0.0500000007
18, -0.0500000007, -0.150000006, 0.0500000007
19, -0.0500000007, -0.200000003, 0.0500000007
20, -0.0500000007,        -0.25, 0.0500000007
** ... 78 like lines cut
*Element, type=DC3D8
1, 15, 16, 23, 22,  1,  2,  9,  8
2, 16, 17, 24, 23,  2,  3, 10,  9
3, 17, 18, 25, 24,  3,  4, 11, 10
4, 18, 19, 26, 25,  4,  5, 12, 11
5, 19, 20, 27, 26,  5,  6, 13, 12
6, 20, 21, 28, 27,  6,  7, 14, 13
7, 29, 30, 37, 36, 15, 16, 23, 22
8, 30, 31, 38, 37, 16, 17, 24, 23
9, 31, 32, 39, 38, 17, 18, 25, 24
10, 32, 33, 40, 39, 18, 19, 26, 25
11, 33, 34, 41, 40, 19, 20, 27, 26
12, 34, 35, 42, 41, 20, 21, 28, 27
13, 43, 44, 51, 50, 29, 30, 37, 36
14, 44, 45, 52, 51, 30, 31, 38, 37
15, 45, 46, 53, 52, 31, 32, 39, 38
16, 46, 47, 54, 53, 32, 33, 40, 39
17, 47, 48, 55, 54, 33, 34, 41, 40
18, 48, 49, 56, 55, 34, 35, 42, 41
19, 57, 58, 65, 64, 43, 44, 51, 50
20, 58, 59, 66, 65, 44, 45, 52, 51
** ... 16 like lines cut
*Nset, nset=_PickedSet2, internal, generate
1,  98,   1
*Elset, elset=_PickedSet2, internal, generate
1,  36,   1
*Nset, nset=Set-Temperature
1,  2,  3,  4,  5,  6,  7, 15, 16, 17, 18, 19, 20, 21, 29, 30
31, 32, 33, 34, 35, 43, 44, 45, 46, 47, 48, 49, 57, 58, 59, 60
61, 62, 63, 71, 72, 73, 74, 75, 76, 77, 85, 86, 87, 88, 89, 90
91,
*Elset, elset=Set-Temperature, generate
1,  36,   1
*Elset, elset=_Set-Temperature_S3, internal, generate
1,  36,   1
*Surface, type=ELEMENT, name=Set-Temperature
_Set-Temperature_S3, S3
*Elset, elset=_ins_sides_S1, internal, generate
31,  36,   1
*Elset, elset=_ins_sides_S6, internal, generate
1,  31,   6
*Elset, elset=_ins_sides_S2, internal, generate
1,  6,  1
*Elset, elset=_ins_sides_S4, internal, generate
6,  36,   6
*Surface, type=ELEMENT, name=ins_sides
_ins_sides_S1, S1
_ins_sides_S6, S6
_ins_sides_S2, S2
_ins_sides_S4, S4
*Elset, elset=_side_x+_S2, internal, generate
1,  6,  1
*Surface, type=ELEMENT, name=side_x+
_side_x+_S2, S2
*Elset, elset=_side_x-_S1, internal, generate
31,  36,   1
*Surface, type=ELEMENT, name=side_x-
_side_x-_S1, S1
*Elset, elset=_side_y-_S4, internal, generate
6,  36,   6
*Surface, type=ELEMENT, name=side_y-
_side_y-_S4, S4
*Elset, elset=_side_y+_S6, internal, generate
1,  31,   6
*Surface, type=ELEMENT, name=side_y+
_side_y+_S6, S6
** Section: Insulator-section
*Solid Section, elset=_PickedSet2, material=insulator
,
*End Part
**
*Part, name=steel
*Node
1,           0.,           0., 0.0500000007
2,           0., -0.0500000007, 0.0500000007
3,           0., -0.100000001, 0.0500000007
4,           0., -0.150000006, 0.0500000007
5,           0., -0.200000003, 0.0500000007
6,           0.,        -0.25, 0.0500000007
7,           0., -0.300000012, 0.0500000007
8,           0.,           0.,           0.
9,           0., -0.0500000007,           0.
10,           0., -0.100000001,           0.
11,           0., -0.150000006,           0.
12,           0., -0.200000003,           0.
13,           0.,        -0.25,           0.
14,           0., -0.300000012,           0.
15, -0.0500000007,           0., 0.0500000007
16, -0.0500000007, -0.0500000007, 0.0500000007
17, -0.0500000007, -0.100000001, 0.0500000007
18, -0.0500000007, -0.150000006, 0.0500000007
19, -0.0500000007, -0.200000003, 0.0500000007
20, -0.0500000007,        -0.25, 0.0500000007
** ... 78 like lines cut
*Element, type=DC3D8
1, 15, 16, 23, 22,  1,  2,  9,  8
2, 16, 17, 24, 23,  2,  3, 10,  9
3, 17, 18, 25, 24,  3,  4, 11, 10
4, 18, 19, 26, 25,  4,  5, 12, 11
5, 19, 20, 27, 26,  5,  6, 13, 12
6, 20, 21, 28, 27,  6,  7, 14, 13
7, 29, 30, 37, 36, 15, 16, 23, 22
8, 30, 31, 38, 37, 16, 17, 24, 23
9, 31, 32, 39, 38, 17, 18, 25, 24
10, 32, 33, 40, 39, 18, 19, 26, 25
11, 33, 34, 41, 40, 19, 20, 27, 26
12, 34, 35, 42, 41, 20, 21, 28, 27
13, 43, 44, 51, 50, 29, 30, 37, 36
14, 44, 45, 52, 51, 30, 31, 38, 37
15, 45, 46, 53, 52, 31, 32, 39, 38
16, 46, 47, 54, 53, 32, 33, 40, 39
17, 47, 48, 55, 54, 33, 34, 41, 40
18, 48, 49, 56, 55, 34, 35, 42, 41
19, 57, 58, 65, 64, 43, 44, 51, 50
20, 58, 59, 66, 65, 44, 45, 52, 51
** ... 16 like lines cut
*Nset, nset=_PickedSet2, internal, generate
1,  98,   1
*Elset, elset=_PickedSet2, internal, generate
1,  36,   1
*Nset, nset=Set-Temperature
1,  2,  3,  4,  5,  6,  7, 15, 16, 17, 18, 19, 20, 21, 29, 30
31, 32, 33, 34, 35, 43, 44, 45, 46, 47, 48, 49, 57, 58, 59, 60
61, 62, 63, 71, 72, 73, 74, 75, 76, 77, 85, 86, 87, 88, 89, 90
91,
*Elset, elset=Set-Temperature, generate
1,  36,   1
*Elset, elset=_Set-Temperature_S3, internal, generate
1,  36,   1
*Surface, type=ELEMENT, name=Set-Temperature
_Set-Temperature_S3, S3
*Elset, elset=_steel_sides_S1, internal, generate
31,  36,   1
*Elset, elset=_steel_sides_S6, internal, generate
1,  31,   6
*Elset, elset=_steel_sides_S2, internal, generate
1,  6,  1
*Elset, elset=_steel_sides_S4, internal, generate
6,  36,   6
*Surface, type=ELEMENT, name=steel_sides
_steel_sides_S1, S1
_steel_sides_S6, S6
_steel_sides_S2, S2
_steel_sides_S4, S4
*Elset, elset=_side_x+_S2, internal, generate
1,  6,  1
*Surface, type=ELEMENT, name=side_x+
_side_x+_S2, S2
*Elset, elset=_side_y+_S6, internal, generate
1,  31,   6
*Surface, type=ELEMENT, name=side_y+
_side_y+_S6, S6
*Elset, elset=_side_x-_S1, internal, generate
31,  36,   1
*Surface, type=ELEMENT, name=side_x-
_side_x-_S1, S1
*Elset, elset=_side_y-_S4, internal, generate
6,  36,   6
*Surface, type=ELEMENT, name=side_y-
_side_y-_S4, S4
** Section: Steel-section
*Solid Section, elset=_PickedSet2, material=steel
,
*End Part
**
**
** ASSEMBLY
**
*Assembly, name=Assembly
**
*Instance, name=steel-1, part=steel
0.3,           0.,           0.
*End Instance
**
*Instance, name=insulator-1, part=insulator
0.3,          0.3,           0.
*End Instance
**
*Instance, name=insulator-2, part=insulator
*End Instance
**
*Instance, name=steel-2, part=steel
0.,          0.3,           0.
*End Instance
**
*Nset, nset=_PickedSet19, internal, instance=steel-1, generate
1,  98,   1
*Nset, nset=_PickedSet19, internal, instance=insulator-1, generate
1,  98,   1
*Nset, nset=_PickedSet19, internal, instance=steel-2, generate
1,  98,   1
*Nset, nset=_PickedSet19, internal, instance=insulator-2, generate
1,  98,   1
*Elset, elset=_PickedSet19, internal, instance=steel-1, generate
1,  36,   1
*Elset, elset=_PickedSet19, internal, instance=insulator-1, generate
1,  36,   1
*Elset, elset=_PickedSet19, internal, instance=steel-2, generate
1,  36,   1
*Elset, elset=_PickedSet19, internal, instance=insulator-2, generate
1,  36,   1
** Constraint: Tie-1
*Tie, name=Tie-1, adjust=yes
steel-2.side_x+, insulator-1.side_x-
** Constraint: Tie-2
*Tie, name=Tie-2, adjust=yes
insulator-2.side_y+, steel-2.side_y-
** Constraint: Tie-3
*Tie, name=Tie-3, adjust=yes
steel-1.side_x-, insulator-2.side_x+
** Constraint: Tie-4
*Tie, name=Tie-4, adjust=yes
insulator-1.side_y-, steel-1.side_y+
*End Assembly
** fds2abqs-amplitude-marker (do not remove)
*Include, input=TC1_m1B.inp.amp
**
** MATERIALS
**
*Material, name=insulator
*Conductivity
0.041,
*Density
229.,
*Specific Heat
2.09,
*Material, name=steel
*Conductivity
53.334,  20.
27.3, 800.
27.3,1200.
*Density
7850.,
*Expansion
0.,  20.
7.37e-06,  50.
9.98e-06, 100.
1.1e-05, 150.
1.16e-05, 200.
1.2e-05, 250.
1.24e-05, 300.
1.27e-05, 350.
1.3e-05, 400.
1.33e-05, 450.
1.35e-05, 500.
1.38e-05, 550.
1.4e-05, 600.
1.42e-05, 650.
1.45e-05, 700.
1.47e-05, 750.
1.28e-05, 860.
1.48e-05,1200.
*Specific Heat
439.802,  20.
487.62, 100.
529.76, 200.
564.74, 300.
605.88, 400.
666.5, 500.
760.217, 600.
767.578, 610.
776.186, 620.
786.389, 630.
798.673, 640.
813.75, 650.
832.692, 660.
857.206, 670.
890.172, 680.
936.875, 690.
1008.16, 700.
1130.36, 710.
1388.33, 720.
2291.25, 730.
** ... 19 like lines cut
**
** PREDEFINED FIELDS
**
** Name: init_temp   Type: Temperature
*Initial Conditions, type=TEMPERATURE
_PickedSet19, 20.
** ----------------------------------------------------------------
**
** STEP: heat_transfer
**
*Step, name=heat_transfer, inc=1000000
*Heat Transfer, end=PERIOD, deltmx=100.
1., 600., 0.001, 5.,
**
** OUTPUT REQUESTS
**
*Restart, write, frequency=0
**
** FIELD OUTPUT: F-Output-1
**
*Output, field, variable=PRESELECT
*Output, history, frequency=0
*End Step
