*Heading
** Job name: TC4_m1 Model name: TC4_m1
** Generated by: Abaqus/CAE 6.11-1
*Preprint, echo=NO, model=NO, history=NO, contact=NO
**
** PARTS
**
*Part, name=column
*Node
1,  0.144999996, -0.144999996,           0.
2, -0.144999996, -0.144999996,           0.
3,  0.144999996,  0.144999996,           0.
4, -0.144999996,  0.144999996,           0.
5,  0.150000006, -0.150000006,           0.
6, -0.150000006, -0.150000006,           0.
7, -0.150000006,  0.150000006,           0.
8,  0.150000006,  0.150000006,           0.
9, 0.0966666639, -0.144999996,           0.
10, 0.0483333319, -0.144999996,           0.
11,           0., -0.144999996,           0.
12, -0.0483333319, -0.144999996,           0.
13, -0.0966666639, -0.144999996,           0.
14,  0.144999996, 0.0966666639,           0.
15,  0.144999996, 0.0483333319,           0.
16,  0.144999996,           0.,           0.
17,  0.144999996, -0.0483333319,           0.
18,  0.144999996, -0.0966666639,           0.
19, -0.0966666639,  0.144999996,           0.
20, -0.0483333319,  0.144999996,           0.
** ... 2908 like lines cut
*Element, type=DC3D8
1,   34,   24,   25,   35,   82,   72,   73,   83
2,   39,   19,   20,   40,   87,   67,   68,   88
3,   44,   14,   15,   45,   92,   62,   63,   93
4,   29,    9,   10,   30,   77,   57,   58,   78
5,    5,   48,   18,    1,   53,   96,   66,   49
6,    9,   29,    5,    1,   57,   77,   53,   49
7,   30,   10,   11,   31,   78,   58,   59,   79
8,   33,   32,   12,   13,   81,   80,   60,   61
9,   14,   44,    8,    3,   62,   92,   56,   51
10,   45,   15,   16,   46,   93,   63,   64,   94
11,   48,   47,   17,   18,   96,   95,   65,   66
12,   19,   39,    7,    4,   67,   87,   55,   52
13,   40,   20,   21,   41,   88,   68,   69,   89
14,   43,   42,   22,   23,   91,   90,   70,   71
15,   24,   34,    6,    2,   72,   82,   54,   50
16,   35,   25,   26,   36,   83,   73,   74,   84
17,   38,   37,   27,   28,   86,   85,   75,   76
18,   32,   31,   11,   12,   80,   79,   59,   60
19,   37,   36,   26,   27,   85,   84,   74,   75
20,   42,   41,   21,   22,   90,   89,   69,   70
** ... 1420 like lines cut
*Nset, nset=_PickedSet2, internal, generate
1,  2928,     1
*Elset, elset=_PickedSet2, internal, generate
1,  1440,     1
*Nset, nset=Set-Temperature
5,    6,    7,    8,   29,   30,   31,   32,   33,   34,   35,   36,   37,   38,   39,   40
41,   42,   43,   44,   45,   46,   47,   48,   53,   54,   55,   56,   77,   78,   79,   80
81,   82,   83,   84,   85,   86,   87,   88,   89,   90,   91,   92,   93,   94,   95,   96
101,  102,  103,  104,  125,  126,  127,  128,  129,  130,  131,  132,  133,  134,  135,  136
137,  138,  139,  140,  141,  142,  143,  144,  149,  150,  151,  152,  173,  174,  175,  176
177,  178,  179,  180,  181,  182,  183,  184,  185,  186,  187,  188,  189,  190,  191,  192
197,  198,  199,  200,  221,  222,  223,  224,  225,  226,  227,  228,  229,  230,  231,  232
233,  234,  235,  236,  237,  238,  239,  240,  245,  246,  247,  248,  269,  270,  271,  272
273,  274,  275,  276,  277,  278,  279,  280,  281,  282,  283,  284,  285,  286,  287,  288
293,  294,  295,  296,  317,  318,  319,  320,  321,  322,  323,  324,  325,  326,  327,  328
329,  330,  331,  332,  333,  334,  335,  336,  341,  342,  343,  344,  365,  366,  367,  368
369,  370,  371,  372,  373,  374,  375,  376,  377,  378,  379,  380,  381,  382,  383,  384
389,  390,  391,  392,  413,  414,  415,  416,  417,  418,  419,  420,  421,  422,  423,  424
425,  426,  427,  428,  429,  430,  431,  432,  437,  438,  439,  440,  461,  462,  463,  464
465,  466,  467,  468,  469,  470,  471,  472,  473,  474,  475,  476,  477,  478,  479,  480
485,  486,  487,  488,  509,  510,  511,  512,  513,  514,  515,  516,  517,  518,  519,  520
521,  522,  523,  524,  525,  526,  527,  528,  533,  534,  535,  536,  557,  558,  559,  560
561,  562,  563,  564,  565,  566,  567,  568,  569,  570,  571,  572,  573,  574,  575,  576
581,  582,  583,  584,  605,  606,  607,  608,  609,  610,  611,  612,  613,  614,  615,  616
617,  618,  619,  620,  621,  622,  623,  624,  629,  630,  631,  632,  653,  654,  655,  656
** ... 72 like lines cut
*Elset, elset=Set-Temperature, generate
1,  1440,     1
** Section: steel-section
*Solid Section, elset=_PickedSet2, material=steel
,
*End Part
**
**
** ASSEMBLY
**
*Assembly, name=Assembly
**
*Instance, name=column-1, part=column
*End Instance
**
*Nset, nset=_PickedSet4, internal, instance=column-1, generate
1,  2928,     1
*Elset, elset=_PickedSet4, internal, instance=column-1, generate
1,  1440,     1
*End Assembly
**
** MATERIALS
**
*Material, name=steel
*Conductivity
53.334,  20.
27.3, 800.
27.3,1200.
*Density
7850.,
*Expansion
0.,  20.
7.37e-06,  50.
9.98e-06, 100.
1.1e-05, 150.
1.16e-05, 200.
1.2e-05, 250.
1.24e-05, 300.
1.27e-05, 350.
1.3e-05, 400.
1.33e-05, 450.
1.35e-05, 500.
1.38e-05, 550.
1.4e-05, 600.
1.42e-05, 650.
1.45e-05, 700.
1.47e-05, 750.
1.28e-05, 860.
1.48e-05,1200.
*Specific Heat
439.802,  20.
487.62, 100.
529.76, 200.
564.74, 300.
605.88, 400.
666.5, 500.
760.217, 600.
767.578, 610.
776.186, 620.
786.389, 630.
798.673, 640.
813.75, 650.
832.692, 660.
857.206, 670.
890.172, 680.
936.875, 690.
1008.16, 700.
1130.36, 710.
1388.33, 720.
2291.25, 730.
** ... 19 like lines cut
**
** PREDEFINED FIELDS
**
** Name: Init-temp   Type: Temperature
*Initial Conditions, type=TEMPERATURE
_PickedSet4, 20.
** ----------------------------------------------------------------
**
** STEP: HT-analysis
**
*Step, name=HT-analysis, inc=1000000
*Heat Transfer, end=PERIOD, deltmx=100.
1., 600., 0.006, 5.,
**
** OUTPUT REQUESTS
**
*Restart, write, frequency=0
**
** FIELD OUTPUT: F-Output-1
**
*Output, field, variable=PRESELECT
*Output, history, frequency=0
*End Step
